Global frequency set at 1000000000000 ticks per second
build/X86/mem/mem_interface.cc:791: warn: DRAM device capacity (8192 Mbytes) does not match the address range assigned (512 Mbytes)
0: system.remote_gdb: listening for remote gdb on port 7002
gem5 Simulator System.  http://gem5.org
gem5 is copyrighted software; use the --copyright option for details.

gem5 version 21.2.1.1
gem5 compiled May 25 2022 13:09:48
gem5 started May 26 2022 14:55:42
gem5 executing on 7e50ff312eb7, pid 20
command line: ./build/X86/gem5.opt ./configs/example/se.py --bp-type=AlwaysBP --cpu-type=O3CPU --l1d_size=64kB --l1i_size=16kB --caches -c ./tests/test-progs/test-suite/SingleSource/Benchmarks/Stanford/Oscar

**** REAL SIMULATION ****
build/X86/sim/simulate.cc:194: info: Entering event queue @ 0.  Starting simulation...
build/X86/arch/x86/cpuid.cc:180: warn: x86 cpuid family 0x0000: unimplemented function 13
build/X86/sim/mem_state.cc:443: info: Increasing stack size by one page.
build/X86/sim/syscall_emul.cc:74: warn: ignoring syscall mprotect(...)
build/X86/sim/syscall_emul.cc:74: warn: ignoring syscall mprotect(...)
build/X86/sim/syscall_emul.cc:74: warn: ignoring syscall mprotect(...)
build/X86/sim/syscall_emul.cc:74: warn: ignoring syscall mprotect(...)

           -9.365         -3.987           -7.705         -3.928
            1.768          5.818            4.053          0.251
            4.150         -5.627            7.061          3.181
           -2.217          1.677            1.318          4.861
            2.666          7.732            6.826          5.291
           -1.201         -7.463            3.584          4.470
            6.182         -3.909           -8.408          2.400
            4.814         -1.604           -9.150         -0.920

           -9.365         -3.987           -7.705         -3.928
            1.768          5.818            4.053          0.251
            4.150         -5.627            7.061          3.181
           -2.217          1.677            1.318          4.861
            2.666          7.732            6.826          5.291
           -1.201         -7.463            3.584          4.470
            6.182         -3.909           -8.408          2.400
            4.814         -1.604           -9.150         -0.920

           -9.365         -3.987           -7.705         -3.928
            1.768          5.818            4.053          0.251
            4.150         -5.627            7.061          3.181
           -2.217          1.677            1.318          4.861
            2.666          7.732            6.826          5.291
           -1.201         -7.463            3.584          4.470
            6.182         -3.909           -8.408          2.400
            4.814         -1.604           -9.150         -0.920

           -9.365         -3.987           -7.705         -3.928
            1.768          5.818            4.053          0.251
            4.150         -5.627            7.061          3.181
           -2.217          1.677            1.318          4.861
            2.666          7.732            6.826          5.291
           -1.201         -7.463            3.584          4.470
            6.182         -3.909           -8.408          2.400
            4.814         -1.604           -9.150         -0.920

           -9.365         -3.987           -7.705         -3.928
            1.768          5.818            4.053          0.251
            4.150         -5.627            7.061          3.181
           -2.217          1.677            1.318          4.861
            2.666          7.732            6.826          5.291
           -1.201         -7.463            3.584          4.470
            6.182         -3.909           -8.408          2.400
            4.814         -1.604           -9.150         -0.920

           -9.365         -3.987           -7.705         -3.928
            1.768          5.818            4.053          0.251
            4.150         -5.627            7.061          3.181
           -2.217          1.677            1.318          4.861
            2.666          7.732            6.826          5.291
           -1.201         -7.463            3.584          4.470
            6.182         -3.909           -8.408          2.400
            4.814         -1.604           -9.150         -0.920

           -9.365         -3.987           -7.705         -3.928
            1.768          5.818            4.053          0.251
            4.150         -5.627            7.061          3.181
           -2.217          1.677            1.318          4.861
            2.666          7.732            6.826          5.291
           -1.201         -7.463            3.584          4.470
            6.182         -3.909           -8.408          2.400
            4.814         -1.604           -9.150         -0.920

           -9.365         -3.987           -7.705         -3.928
            1.768          5.818            4.053          0.251
            4.150         -5.627            7.061          3.181
           -2.217          1.677            1.318          4.861
            2.666          7.732            6.826          5.291
           -1.201         -7.463            3.584          4.470
            6.182         -3.909           -8.408          2.400
            4.814         -1.604           -9.150         -0.920

           -9.365         -3.987           -7.705         -3.928
            1.768          5.818            4.053          0.251
            4.150         -5.627            7.061          3.181
           -2.217          1.677            1.318          4.861
            2.666          7.732            6.826          5.291
           -1.201         -7.463            3.584          4.470
            6.182         -3.909           -8.408          2.400
            4.814         -1.604           -9.150         -0.920

           -9.365         -3.987           -7.705         -3.928
            1.768          5.818            4.053          0.251
            4.150         -5.627            7.061          3.181
           -2.217          1.677            1.318          4.861
            2.666          7.732            6.826          5.291
           -1.201         -7.463            3.584          4.470
            6.182         -3.909           -8.408          2.400
            4.814         -1.604           -9.150         -0.920
Exiting @ tick 7485723500 because exiting with last active thread context
