Global frequency set at 1000000000000 ticks per second
build/X86/mem/mem_interface.cc:791: warn: DRAM device capacity (8192 Mbytes) does not match the address range assigned (512 Mbytes)
0: system.remote_gdb: listening for remote gdb on port 7017
gem5 Simulator System.  http://gem5.org
gem5 is copyrighted software; use the --copyright option for details.

gem5 version 21.2.1.1
gem5 compiled May 25 2022 13:09:48
gem5 started May 26 2022 16:46:16
gem5 executing on 7e50ff312eb7, pid 517
command line: ./build/X86/gem5.opt ./configs/example/se.py --bp-type=TournamentBP --cpu-type=O3CPU --l1d_size=64kB --l1i_size=16kB --caches -c ./tests/test-progs/test-suite/SingleSource/Benchmarks/Stanford/Quicksort

**** REAL SIMULATION ****
build/X86/sim/simulate.cc:194: info: Entering event queue @ 0.  Starting simulation...
build/X86/arch/x86/cpuid.cc:180: warn: x86 cpuid family 0x0000: unimplemented function 13
build/X86/sim/mem_state.cc:443: info: Increasing stack size by one page.
build/X86/sim/syscall_emul.cc:74: warn: ignoring syscall mprotect(...)
build/X86/sim/syscall_emul.cc:74: warn: ignoring syscall mprotect(...)
build/X86/sim/syscall_emul.cc:74: warn: ignoring syscall mprotect(...)
build/X86/sim/syscall_emul.cc:74: warn: ignoring syscall mprotect(...)
-50000
-49999
-49997
-49985
-49964
-49962
-49944
-49939
-49915
-49880
-49878
-49867
-49866
-49841
-49821
-49817
-49814
-49813
-49796
-49786
-49783
-49780
-49761
-49733
-49718
-49714
-49712
-49694
-49692
-49679
-49678
-49677
-49662
-49643
-49616
-49612
-49589
-49560
-49530
-49527
-49526
-49524
-49509
-49485
-49470
-49457
-49451
-49442
-49441
-49440
-49430
-49423
-49422
-49414
-49395
-49393
-49388
-49375
-49371
-49340
-49318
-49313
-49296
-49274
-49268
-49257
-49256
-49207
-49199
-49192
-49190
-49184
-49183
-49179
-49176
-49170
-49169
-49141
-49130
-49122
-49117
-49110
-49079
-49073
-49069
-49046
-49033
-49021
-49018
-49012
-48999
-48996
-48994
-48968
-48955
-48951
-48919
-48915
-48908
-48907
Exiting @ tick 87654744500 because exiting with last active thread context
